Version 4
SHEET 1 2544 680
WIRE -304 -80 -432 -80
WIRE -432 -48 -432 -80
WIRE -304 48 -304 -80
WIRE -224 48 -304 48
WIRE -32 48 -224 48
WIRE 192 48 -32 48
WIRE 416 48 192 48
WIRE 608 48 416 48
WIRE 800 48 608 48
WIRE 992 48 800 48
WIRE 1184 48 992 48
WIRE 1376 48 1184 48
WIRE 1568 48 1376 48
WIRE 1760 48 1568 48
WIRE 1952 48 1760 48
WIRE 2144 48 1952 48
WIRE 2336 48 2144 48
WIRE -304 112 -384 112
WIRE -112 112 -144 112
WIRE -96 112 -112 112
WIRE 112 112 80 112
WIRE 304 112 288 112
WIRE 336 112 304 112
WIRE 352 112 336 112
WIRE 720 112 704 112
WIRE 912 112 880 112
WIRE 1104 112 1056 112
WIRE 1296 112 1248 112
WIRE 1376 112 1296 112
WIRE 1488 112 1440 112
WIRE 1552 112 1488 112
WIRE 1744 112 1680 112
WIRE 1872 112 1824 112
WIRE 1952 112 1872 112
WIRE 2112 112 2064 112
WIRE 2256 112 2208 112
WIRE 2320 112 2256 112
WIRE -32 192 -224 192
WIRE 192 192 -32 192
WIRE 416 192 192 192
WIRE 608 192 416 192
WIRE 800 192 608 192
WIRE 992 192 800 192
WIRE 1184 192 992 192
WIRE 1376 192 1184 192
WIRE 1568 192 1376 192
WIRE 1760 192 1568 192
WIRE 1952 192 1760 192
WIRE 2144 192 1952 192
WIRE 2336 192 2144 192
WIRE -384 224 -384 112
WIRE -224 272 -224 192
WIRE 912 288 912 112
WIRE 528 320 528 112
WIRE 720 320 528 320
WIRE -96 336 -96 112
WIRE 112 336 112 112
WIRE 336 336 336 112
FLAG -432 32 0
FLAG -224 272 0
FLAG -384 304 0
FLAG 720 320 out1
IOPIN 720 320 Out
FLAG 2448 112 out
IOPIN 2448 112 Out
FLAG 336 336 out2
IOPIN 336 336 Out
FLAG 112 336 out3
IOPIN 112 336 Out
FLAG -96 336 out4
IOPIN -96 336 Out
SYMBOL inverter_new 368 80 R0
SYMATTR InstName X1
SYMBOL inverter_new 368 80 R0
SYMATTR InstName X3
SYMBOL inverter_new 560 80 R0
SYMATTR InstName X4
SYMBOL inverter_new -80 80 R0
SYMATTR InstName X6
SYMBOL inverter_new -272 80 R0
SYMATTR InstName X7
SYMBOL voltage -432 -64 R0
WINDOW 123 0 0 Left 0
WINDOW 39 0 0 Left 0
SYMATTR InstName VDD
SYMATTR Value 3.3
SYMBOL voltage -384 208 R0
WINDOW 123 0 0 Left 0
WINDOW 39 0 0 Left 0
SYMATTR InstName V2
SYMATTR Value PULSE(0 2 1n 100p 100p 0.5m 1m)
SYMBOL inverter_new 752 80 R0
SYMATTR InstName X5
SYMBOL inverter_new 944 80 R0
SYMATTR InstName X8
SYMBOL inverter_new 1136 80 R0
SYMATTR InstName X9
SYMBOL inverter_new 1328 80 R0
SYMATTR InstName X10
SYMBOL inverter_new 1520 80 R0
SYMATTR InstName X11
SYMBOL inverter_new 1712 80 R0
SYMATTR InstName X12
SYMBOL inverter_new 1904 80 R0
SYMATTR InstName X13
SYMBOL inverter_new 2096 80 R0
SYMATTR InstName X14
SYMBOL inverter_new 2288 80 R0
SYMATTR InstName X15
SYMBOL inverter_new 144 80 R0
SYMATTR InstName X2
TEXT -160 -64 Left 2 !.lib 035.lib
TEXT -168 -40 Left 2 !.tran 0 100n 0 1n
