Version 4
SHEET 1 880 904
WIRE -208 112 -208 48
WIRE -192 112 -208 112
WIRE -208 128 -208 112
WIRE -256 176 -304 176
WIRE -192 176 -192 112
WIRE -192 176 -208 176
WIRE -304 256 -304 176
WIRE -304 256 -400 256
WIRE -208 256 -208 224
WIRE -176 256 -208 256
WIRE -208 288 -208 256
WIRE -304 336 -304 256
WIRE -256 336 -304 336
WIRE -192 336 -208 336
WIRE -192 384 -192 336
WIRE -192 384 -208 384
WIRE -208 464 -208 384
FLAG -208 48 VDD
IOPIN -208 48 BiDir
FLAG -208 464 GND
IOPIN -208 464 BiDir
FLAG -400 256 in
IOPIN -400 256 In
FLAG -176 256 out
IOPIN -176 256 Out
SYMBOL pmos_new -256 128 R0
SYMATTR InstName M2
SYMATTR Value2 W=6u
SYMATTR Prefix X
SYMBOL nmos_new -256 288 R0
SYMATTR InstName M1
SYMATTR Value2 W=3u
SYMATTR Prefix X
TEXT -40 272 Left 2 !.lib 035.lib
