Version 4
SHEET 1 880 680
WIRE -256 -352 -368 -352
WIRE -368 -336 -368 -352
WIRE -368 -336 -464 -336
WIRE -208 -256 -208 -304
WIRE -208 -256 -352 -256
WIRE -64 -256 -208 -256
WIRE -496 -208 -800 -208
WIRE -400 -208 -496 -208
WIRE -112 -208 -208 -208
WIRE -208 -192 -208 -208
WIRE -208 -192 -688 -192
WIRE -208 -160 -352 -160
WIRE -64 -160 -208 -160
WIRE -208 -80 -208 -160
WIRE -128 -80 -208 -80
WIRE -208 -16 -208 -80
WIRE -208 -16 -352 -16
WIRE -64 -16 -208 -16
WIRE -464 32 -464 -336
WIRE -400 32 -464 32
WIRE -112 32 -208 32
WIRE -496 48 -496 -208
WIRE -208 48 -208 32
WIRE -208 48 -496 48
WIRE -64 112 -64 80
WIRE -688 160 -688 -192
WIRE -688 160 -832 160
WIRE -112 160 -688 160
WIRE -352 352 -352 80
WIRE -64 352 -64 208
FLAG -400 32 A
IOPIN -400 32 In
FLAG -112 32 B
IOPIN -112 32 In
FLAG -112 160 C
IOPIN -112 160 In
FLAG -352 352 0
FLAG -64 352 0
FLAG -256 -352 A
IOPIN -256 -352 In
FLAG -400 -208 B
IOPIN -400 -208 In
FLAG -112 -208 C
IOPIN -112 -208 In
FLAG -208 -480 0
FLAG -128 -80 Y
IOPIN -128 -80 Out
FLAG -832 80 0
FLAG -800 -288 0
FLAG -464 -416 0
SYMBOL nmos_new -112 -16 R0
SYMATTR InstName M1
SYMBOL nmos_new -112 112 R0
SYMATTR InstName M2
SYMBOL nmos_new -400 -16 R0
SYMATTR InstName M3
SYMBOL pmos_new -400 -256 R0
SYMATTR InstName M4
SYMBOL pmos_new -112 -256 R0
SYMATTR InstName M5
SYMBOL pmos_new -256 -400 R0
SYMATTR InstName M6
SYMBOL voltage -208 -384 R180
WINDOW 123 0 0 Left 0
WINDOW 39 0 0 Left 0
SYMATTR InstName V1
SYMATTR Value 5V
SYMBOL voltage -832 176 R180
WINDOW 0 24 96 Left 2
WINDOW 3 24 16 Left 2
WINDOW 123 0 0 Left 0
WINDOW 39 0 0 Left 0
SYMATTR InstName C
SYMATTR Value 5
SYMBOL voltage -800 -192 R180
WINDOW 123 0 0 Left 0
WINDOW 39 0 0 Left 0
SYMATTR InstName B
SYMATTR Value 5
SYMBOL voltage -464 -320 R180
WINDOW 123 0 0 Left 0
WINDOW 39 0 0 Left 0
SYMATTR InstName A
SYMATTR Value 5
TEXT 624 632 Left 2 !.lib 035.lib
TEXT -56 -352 Left 2 !.tran 1s
