Version 4
SHEET 1 880 680
WIRE 80 -160 80 -176
WIRE 80 -64 80 -80
WIRE 80 -64 -352 -64
WIRE 32 -16 16 -16
WIRE 144 -16 128 -16
WIRE -112 32 -128 32
WIRE 16 32 16 -16
WIRE 16 32 -32 32
WIRE 144 32 144 -16
WIRE 208 32 144 32
WIRE 16 80 16 32
WIRE 32 80 16 80
WIRE 144 80 144 32
WIRE 144 80 128 80
WIRE -80 144 -112 144
WIRE 80 144 80 128
WIRE 80 144 0 144
WIRE 208 144 208 32
WIRE 256 144 208 144
WIRE 80 160 80 144
WIRE 32 208 16 208
WIRE 144 208 128 208
WIRE -112 256 -128 256
WIRE 16 256 16 208
WIRE 16 256 -32 256
WIRE 144 256 144 208
WIRE 208 256 208 144
WIRE 208 256 144 256
WIRE 16 304 16 256
WIRE 32 304 16 304
WIRE 144 304 144 256
WIRE 144 304 128 304
WIRE -352 368 -352 -64
WIRE 80 368 80 352
WIRE 80 368 -352 368
WIRE 80 384 80 368
FLAG 256 144 Y
IOPIN 256 144 Out
FLAG -112 144 0
FLAG -128 32 0
FLAG -128 256 0
FLAG 80 -176 0
SYMBOL nmos_new 128 160 R90
SYMATTR InstName M1
SYMBOL nmos_new 128 -64 R90
SYMATTR InstName M2
SYMBOL pmos_new 32 128 R270
SYMATTR InstName M3
SYMBOL pmos_new 32 352 R270
SYMATTR InstName M4
SYMBOL voltage 80 -64 R180
WINDOW 0 24 96 Left 2
WINDOW 3 24 16 Left 2
WINDOW 123 0 0 Left 0
WINDOW 39 0 0 Left 0
SYMATTR InstName C
SYMATTR Value 5
SYMBOL voltage -16 32 R90
WINDOW 0 -32 56 VBottom 2
WINDOW 3 32 56 VTop 2
WINDOW 123 0 0 Left 0
WINDOW 39 0 0 Left 0
SYMATTR InstName A
SYMATTR Value 5
SYMBOL voltage -16 256 R90
WINDOW 0 -32 56 VBottom 2
WINDOW 3 32 56 VTop 2
WINDOW 123 0 0 Left 0
WINDOW 39 0 0 Left 0
SYMATTR InstName B
SYMATTR Value 5
SYMBOL voltage 16 144 R90
WINDOW 0 -32 56 VBottom 2
WINDOW 3 32 56 VTop 2
WINDOW 123 0 0 Left 0
WINDOW 39 0 0 Left 0
SYMATTR InstName C2
SYMATTR Value 5
TEXT 288 272 Left 2 !.lib 035.lib
TEXT -152 504 Left 2 !.tran 1u
