Version 4
SHEET 1 880 680
WIRE -16 -176 -16 -192
WIRE 160 -176 160 -192
WIRE -16 -64 -16 -96
WIRE 160 -64 160 -96
WIRE -176 48 -224 48
WIRE -64 48 -64 -16
WIRE -64 48 -96 48
WIRE 32 48 32 -16
WIRE 112 48 112 -16
WIRE 112 48 32 48
WIRE 208 48 208 -16
WIRE 256 48 208 48
WIRE -64 112 -64 48
WIRE 32 112 32 48
WIRE 112 112 112 48
WIRE 208 112 208 48
WIRE -16 144 -16 112
WIRE 160 144 160 112
WIRE -16 224 -16 160
WIRE 160 224 160 160
WIRE -16 320 -16 304
WIRE 160 320 160 304
FLAG -224 48 0
FLAG -16 -192 0
FLAG 160 -192 0
FLAG 160 320 0
FLAG -16 320 0
FLAG 256 48 Y
IOPIN 256 48 Out
SYMBOL nmos_new 208 -64 R90
SYMATTR InstName M1
SYMBOL pmos_new 112 160 R270
SYMATTR InstName M2
SYMBOL nmos_new 32 -64 R90
SYMATTR InstName M3
SYMBOL pmos_new -64 160 R270
SYMATTR InstName M4
SYMBOL voltage 160 -80 R180
WINDOW 123 0 0 Left 0
WINDOW 39 0 0 Left 0
SYMATTR InstName C
SYMATTR Value 0
SYMBOL voltage -80 48 R90
WINDOW 0 -32 56 VBottom 2
WINDOW 3 32 56 VTop 2
WINDOW 123 0 0 Left 0
WINDOW 39 0 0 Left 0
SYMATTR InstName A
SYMATTR Value 5
SYMBOL voltage -16 -80 R180
WINDOW 123 0 0 Left 0
WINDOW 39 0 0 Left 0
SYMATTR InstName B
SYMATTR Value 5
SYMBOL voltage -16 208 R0
WINDOW 123 0 0 Left 0
WINDOW 39 0 0 Left 0
SYMATTR InstName B1
SYMATTR Value 0
SYMBOL voltage 160 208 R0
WINDOW 123 0 0 Left 0
WINDOW 39 0 0 Left 0
SYMATTR InstName C1
SYMATTR Value 5
TEXT 496 -48 Left 2 !.lib 035.lib
TEXT -274 326 Left 2 !.tran 1u
