Version 4
SHEET 1 1616 680
WIRE 960 -432 960 -448
WIRE 960 -416 960 -432
WIRE 960 -320 960 -352
WIRE 960 -320 832 -320
WIRE 1136 -320 960 -320
WIRE 960 -224 832 -224
WIRE 1136 -224 960 -224
WIRE 960 -176 960 -224
WIRE 960 -176 832 -176
WIRE 1136 -176 960 -176
WIRE 960 -80 832 -80
WIRE 1136 -80 960 -80
WIRE 960 0 960 -80
WIRE 1040 0 960 0
WIRE 960 48 960 0
WIRE 960 48 816 48
WIRE 1120 48 960 48
WIRE 960 256 816 256
WIRE 1120 256 960 256
WIRE 960 272 960 256
FLAG 960 -448 0
FLAG 1040 0 Y
IOPIN 1040 0 Out
FLAG 960 272 0
FLAG 768 96 A
IOPIN 768 96 In
FLAG 768 208 B
IOPIN 768 208 In
FLAG 1120 96 C
IOPIN 1120 96 In
FLAG 1120 208 D
IOPIN 1120 208 In
FLAG 784 -128 C
IOPIN 784 -128 In
FLAG 784 -272 A
IOPIN 784 -272 In
FLAG 1136 -272 B
IOPIN 1136 -272 In
FLAG 1136 -128 D
IOPIN 1136 -128 In
SYMBOL voltage 960 -448 R0
SYMATTR InstName V2
SYMBOL nmos_new 768 160 R0
SYMATTR InstName M7
SYMBOL nmos_new 768 48 R0
SYMATTR InstName M8
SYMBOL nmos_new 1072 160 R0
SYMATTR InstName M9
SYMBOL nmos_new 1072 48 R0
SYMATTR InstName M10
SYMBOL pmos_new 784 -320 R0
SYMATTR InstName M11
SYMBOL pmos_new 1088 -320 R0
SYMATTR InstName M12
SYMBOL pmos_new 1088 -176 R0
SYMATTR InstName M13
SYMBOL pmos_new 784 -176 R0
SYMATTR InstName M14
TEXT 1168 -448 Left 2 !.lib 035.lib
