Version 4
SHEET 1 1120 680
WIRE 176 -160 176 -192
WIRE 912 -112 912 -144
WIRE 16 -32 0 -32
WIRE 128 -32 16 -32
WIRE 176 -32 176 -80
WIRE 176 -32 128 -32
WIRE 240 -32 176 -32
WIRE 336 -32 240 -32
WIRE 352 -32 336 -32
WIRE 912 0 912 -32
WIRE 864 48 752 48
WIRE 880 48 864 48
WIRE 16 64 0 64
WIRE 128 64 16 64
WIRE 160 64 128 64
WIRE 240 64 160 64
WIRE 336 64 240 64
WIRE 352 64 336 64
WIRE 160 96 160 64
WIRE 240 96 160 96
WIRE 912 96 912 80
WIRE 160 112 160 96
WIRE 912 112 912 96
WIRE 912 128 912 112
WIRE 112 160 80 160
WIRE 864 160 752 160
WIRE 880 160 864 160
WIRE 912 208 912 192
WIRE 160 224 160 208
WIRE 912 224 912 208
WIRE 912 240 912 224
WIRE 112 272 80 272
WIRE 864 272 752 272
WIRE 880 272 864 272
WIRE 912 320 912 304
WIRE 160 336 160 320
WIRE 1056 368 768 368
WIRE 112 384 80 384
WIRE 768 384 768 368
WIRE 912 384 912 320
WIRE 1056 384 1056 368
WIRE 768 400 768 384
WIRE 912 400 912 384
WIRE 1056 400 1056 384
WIRE 720 432 672 432
WIRE 736 432 720 432
WIRE 864 432 848 432
WIRE 880 432 864 432
WIRE 1008 432 992 432
WIRE 1024 432 1008 432
WIRE 160 448 160 432
WIRE 768 480 768 464
WIRE 912 480 912 464
WIRE 1056 480 1056 464
WIRE 112 496 80 496
WIRE 768 528 768 480
WIRE 912 528 912 480
WIRE 912 528 768 528
WIRE 1056 528 1056 480
WIRE 1056 528 912 528
WIRE 160 560 160 544
WIRE 912 576 912 528
FLAG 80 160 A
IOPIN 80 160 In
FLAG 80 272 B
IOPIN 80 272 In
FLAG 80 384 C
IOPIN 80 384 In
FLAG 80 496 D
IOPIN 80 496 In
FLAG 160 560 0
FLAG -32 16 A
IOPIN -32 16 In
FLAG 80 16 B
IOPIN 80 16 In
FLAG 192 16 C
IOPIN 192 16 In
FLAG 288 16 D
IOPIN 288 16 In
FLAG 176 -192 0
FLAG 912 576 0
FLAG 912 -144 0
FLAG 752 48 A
IOPIN 752 48 In
FLAG 752 160 B
IOPIN 752 160 In
FLAG 752 272 C
IOPIN 752 272 In
FLAG 672 432 A
IOPIN 672 432 In
FLAG 848 432 B
IOPIN 848 432 In
FLAG 992 432 C
IOPIN 992 432 In
SYMBOL nmos_new 112 112 R0
SYMATTR InstName M1
SYMBOL nmos_new 112 224 R0
SYMATTR InstName M2
SYMBOL nmos_new 112 336 R0
SYMATTR InstName M3
SYMBOL nmos_new 112 448 R0
SYMATTR InstName M4
SYMBOL pmos_new -32 -32 R0
SYMATTR InstName M5
SYMBOL pmos_new 288 -32 R0
SYMATTR InstName M8
SYMBOL pmos_new 80 -32 R0
SYMATTR InstName M6
SYMBOL pmos_new 192 -32 R0
SYMATTR InstName M7
SYMBOL voltage 176 -176 R0
SYMATTR InstName V1
SYMATTR Value VDD
SYMBOL nmos_new 720 384 R0
SYMATTR InstName M9
SYMBOL nmos_new 864 384 R0
SYMATTR InstName M10
SYMBOL nmos_new 1008 384 R0
SYMATTR InstName M11
SYMBOL pmos_new 864 224 R0
SYMATTR InstName M12
SYMBOL pmos_new 864 112 R0
SYMATTR InstName M13
SYMBOL pmos_new 864 0 R0
SYMATTR InstName M14
SYMBOL voltage 912 -128 R0
SYMATTR InstName V2
TEXT 440 280 Left 2 !.lib 035.lib
