Version 4
SHEET 1 880 904
WIRE -304 96 -368 96
WIRE -96 96 -144 96
WIRE -368 112 -368 96
WIRE -368 112 -432 112
WIRE -352 112 -368 112
WIRE -304 112 -304 96
WIRE -224 112 -224 96
WIRE -224 112 -256 112
WIRE -192 112 -224 112
WIRE -144 112 -144 96
WIRE -96 112 -96 96
WIRE -16 112 -96 112
WIRE -432 144 -432 112
WIRE -16 144 -16 112
WIRE -304 208 -304 160
WIRE -224 208 -304 208
WIRE -144 208 -144 160
WIRE -144 208 -224 208
WIRE -224 224 -224 208
WIRE -432 240 -432 224
WIRE -224 320 -224 304
FLAG -432 240 0
FLAG -224 320 0
FLAG -16 144 0
FLAG -224 96 out
FLAG -224 208 in
SYMBOL pmos_new -352 160 R270
SYMATTR InstName M2
SYMATTR Value2 W=6u
SYMATTR Prefix X
SYMBOL nmos_new -192 160 R270
SYMATTR InstName M1
SYMATTR Value2 W=3u
SYMATTR Prefix X
SYMBOL voltage -224 208 R0
WINDOW 123 24 124 Left 2
WINDOW 39 0 0 Left 0
SYMATTR Value2 AC 1
SYMATTR InstName Vin
SYMATTR Value PULSE(0 3.3 0 1n 1n 9n 20n)
SYMBOL voltage -432 128 R0
WINDOW 3 34 101 Left 2
WINDOW 123 0 0 Left 0
WINDOW 39 0 0 Left 0
SYMATTR Value 3.3V
SYMATTR InstName VDD
TEXT 224 144 Left 2 !.lib 035.lib
TEXT -120 344 Left 2 !.tran 0 100n 0 1n
